Version 4
SHEET 1 1644 972
WIRE -320 -272 -400 -272
WIRE -448 -224 -512 -224
WIRE -320 -224 -320 -272
WIRE -320 -224 -368 -224
WIRE -256 -224 -320 -224
WIRE 32 -224 -256 -224
WIRE 64 -224 32 -224
WIRE 176 -224 144 -224
WIRE 272 -224 240 -224
WIRE -512 -208 -512 -224
WIRE -320 -192 -320 -224
WIRE 32 -192 32 -224
WIRE 32 -192 0 -192
WIRE -80 -176 -128 -176
WIRE 32 -160 0 -160
WIRE -128 -144 -128 -176
WIRE 32 -128 32 -160
WIRE 128 -128 32 -128
WIRE 272 -128 272 -224
WIRE 272 -128 192 -128
WIRE -256 -112 -256 -224
WIRE -512 -80 -512 -128
WIRE -416 -80 -512 -80
WIRE -320 -80 -320 -128
WIRE -320 -80 -352 -80
WIRE 272 -80 272 -128
WIRE -176 -48 -176 -112
WIRE -128 -48 -128 -64
WIRE -128 -48 -176 -48
WIRE -416 32 -416 16
WIRE -800 48 -880 48
WIRE -768 48 -800 48
WIRE -672 48 -704 48
WIRE -624 48 -672 48
WIRE -512 48 -512 -80
WIRE -512 48 -544 48
WIRE -448 48 -512 48
WIRE -320 64 -320 -80
WIRE -320 64 -384 64
WIRE -256 64 -256 -32
WIRE -256 64 -320 64
WIRE -208 64 -256 64
WIRE -448 80 -464 80
WIRE -128 80 -128 -48
WIRE -80 80 -128 80
WIRE 48 80 -16 80
WIRE -208 96 -224 96
WIRE -880 112 -880 48
WIRE -464 112 -464 80
WIRE -416 112 -416 96
WIRE -928 144 -1056 144
WIRE -1056 176 -1056 144
WIRE -512 240 -512 48
WIRE 48 240 16 240
WIRE 192 240 48 240
WIRE 288 240 192 240
WIRE 48 272 48 240
WIRE -1056 288 -1056 256
WIRE -880 288 -880 192
WIRE -880 288 -1056 288
WIRE -672 288 -672 48
WIRE -640 288 -672 288
WIRE -544 288 -576 288
WIRE -400 288 -464 288
WIRE -320 288 -320 64
WIRE -320 288 -336 288
WIRE -880 320 -880 288
WIRE 192 352 192 240
WIRE 288 352 288 240
WIRE -800 384 -800 48
WIRE -224 384 -224 96
WIRE -224 384 -800 384
WIRE -16 384 -32 384
WIRE 48 384 48 352
WIRE 48 384 -16 384
WIRE 48 400 48 384
WIRE -16 416 -16 384
WIRE -16 496 -16 480
WIRE 48 496 48 480
WIRE 48 496 -16 496
WIRE 192 496 192 432
WIRE 192 496 48 496
WIRE 288 496 288 416
WIRE 288 496 192 496
WIRE 192 528 192 496
FLAG 48 80 out
IOPIN 48 80 Out
FLAG 16 240 V+
FLAG -32 384 Vref
FLAG -464 112 Vref
FLAG -416 16 V+
FLAG -416 112 0
FLAG 192 528 0
FLAG 272 -80 0
FLAG -880 320 0
SYMBOL res 32 256 R0
SYMATTR InstName R1
SYMATTR Value 2.2meg
SYMBOL res 32 384 R0
SYMATTR InstName R2
SYMATTR Value 2.2meg
SYMBOL res 48 -208 R270
WINDOW 0 32 56 VTop 2
WINDOW 3 0 56 VBottom 2
SYMATTR InstName R3
SYMATTR Value 10k
SYMBOL res -496 -112 R180
WINDOW 0 36 76 Left 2
WINDOW 3 36 40 Left 2
SYMATTR InstName R4
SYMATTR Value 47k
SYMBOL res -640 64 R270
WINDOW 0 32 56 VTop 2
WINDOW 3 0 56 VBottom 2
SYMATTR InstName R5
SYMATTR Value 220k
SYMBOL cap -336 272 R90
WINDOW 0 0 32 VBottom 2
WINDOW 3 29 2 VTop 2
SYMATTR InstName C1
SYMATTR Value 470p
SYMBOL cap -576 272 R90
WINDOW 0 0 32 VBottom 2
WINDOW 3 32 32 VTop 2
SYMATTR InstName C2
SYMATTR Value 2.2n
SYMBOL cap -352 -96 R90
WINDOW 0 0 32 VBottom 2
WINDOW 3 32 32 VTop 2
SYMATTR InstName C3
SYMATTR Value 100p
SYMBOL cap -304 -128 R180
WINDOW 0 24 56 Left 2
WINDOW 3 24 8 Left 2
SYMATTR InstName C4
SYMATTR Value 47n
SYMBOL polcap 272 352 R0
SYMATTR InstName C5
SYMATTR Value 1µ
SYMBOL polcap -32 416 R0
SYMATTR InstName C6
SYMATTR Value 1µ
SYMBOL polcap 176 -208 R270
WINDOW 0 32 32 VTop 2
WINDOW 3 0 32 VBottom 2
SYMATTR InstName C7
SYMATTR Value 10µ
SYMBOL polcap -768 64 R270
WINDOW 0 32 32 VTop 2
WINDOW 3 0 32 VBottom 2
SYMATTR InstName C8
SYMATTR Value 0.1µ
SYMBOL polcap -80 96 R270
WINDOW 0 32 32 VTop 2
WINDOW 3 0 32 VBottom 2
SYMATTR InstName C9
SYMATTR Value 10µ
SYMBOL voltage 192 336 R0
WINDOW 123 0 0 Left 2
WINDOW 39 0 0 Left 2
SYMATTR InstName V1
SYMATTR Value 9
SYMBOL voltage -1056 160 R0
WINDOW 0 39 81 Top 2
WINDOW 3 -60 137 Invisible 2
SYMATTR InstName V2
SYMATTR Value SINE(0 0.01 1000)
SYMATTR Value2 AC 1
SYMATTR SpiceLine Rser=4000
SYMBOL potentiometer_standard -112 -48 R180
WINDOW 39 48 112 Invisible 2
WINDOW 38 48 41 Invisible 2
WINDOW 0 35 127 Left 2
WINDOW 3 -243 26 Invisible 2
SYMATTR SpiceLine Rtap=12k tap=0.5
SYMATTR SpiceModel pot_plog
SYMATTR InstName Bass
SYMATTR Value Rtot=100K wiper=0.5
SYMBOL potentiometer_standard -448 304 M270
WINDOW 38 48 41 Invisible 2
WINDOW 39 48 112 Invisible 2
WINDOW 0 60 30 VLeft 2
WINDOW 3 -22 212 Invisible 2
SYMATTR SpiceModel pot_nlog
SYMATTR SpiceLine Rtap=140k tap=0.5
SYMATTR InstName Treble
SYMATTR Value Rtot=1000K wiper={w}
SYMBOL Opamps\\UniversalOpamp2 -416 64 R0
SYMATTR InstName LM833
SYMBOL potentiometer_standard -864 208 R180
WINDOW 38 48 41 Invisible 2
WINDOW 39 48 112 Invisible 2
WINDOW 0 62 136 Left 2
WINDOW 3 30 1 Invisible 2
SYMATTR SpiceModel pot_nlog
SYMATTR SpiceLine Rtap=50k tap=0.5
SYMATTR InstName Vol
SYMATTR Value Rtot=500K wiper=1
SYMBOL Misc\\potentiometer_standard -464 -208 R270
WINDOW 0 86 -63 VRight 2
WINDOW 3 48 89 Invisible 2
WINDOW 39 48 112 Invisible 2
WINDOW 38 48 41 Invisible 2
SYMATTR InstName Gain_trim
SYMATTR Value Rtot=100K wiper=0.4
SYMATTR SpiceLine Rtap=50k tap=0.5
SYMBOL cap 192 -144 R90
WINDOW 0 0 32 VBottom 2
WINDOW 3 32 32 VTop 2
SYMATTR InstName C10
SYMATTR Value 0.047µ
SYMBOL res -272 -128 R0
WINDOW 3 25 101 Left 2
WINDOW 0 39 74 Left 2
SYMATTR Value 1Meg
SYMATTR InstName R6
SYMBOL Misc\\spdt -32 -176 M180
WINDOW 3 -32 36 Invisible 2
SYMATTR Value SET={sw}
SYMATTR InstName U1.2
SYMBOL Misc\\spdt -176 80 R180
WINDOW 3 -32 36 Invisible 2
SYMATTR Value SET={sw}
SYMATTR InstName U1.1
TEXT -792 504 Left 2 !.ac oct 100 20 20k
TEXT -800 472 Left 2 !.include potentiometer_standard.lib
TEXT -800 544 Left 2 !.step lin param w 0 1 0.1
TEXT -232 -144 Left 2 ;100K log
TEXT -536 336 Left 2 ;1Meg rev log
TEXT -992 112 Left 2 ;500K log
TEXT -512 -264 Left 2 ;100K lin
TEXT -800 584 Left 2 !.param sw 1
LINE Normal -48 0 -160 64 2
LINE Normal -48 -160 -48 0 2
LINE Normal -48 -160 -48 -160 1
