Version 4
SHEET 1 1644 972
WIRE -656 -240 -720 -240
WIRE -720 -224 -720 -240
WIRE -320 -224 -512 -224
WIRE -240 -224 -320 -224
WIRE 32 -224 -240 -224
WIRE 80 -224 32 -224
WIRE 176 -224 160 -224
WIRE 272 -224 240 -224
WIRE -512 -208 -512 -224
WIRE -320 -192 -320 -224
WIRE 32 -192 32 -224
WIRE 32 -192 0 -192
WIRE -768 -176 -800 -176
WIRE -656 -176 -656 -240
WIRE -656 -176 -688 -176
WIRE -80 -176 -128 -176
WIRE -800 -160 -800 -176
WIRE 32 -160 0 -160
WIRE -128 -144 -128 -176
WIRE -240 -128 -240 -224
WIRE 32 -128 32 -160
WIRE 128 -128 32 -128
WIRE 272 -128 272 -224
WIRE 272 -128 192 -128
WIRE -512 -80 -512 -128
WIRE -416 -80 -512 -80
WIRE -320 -80 -320 -128
WIRE -320 -80 -352 -80
WIRE 272 -80 272 -128
WIRE -800 -64 -800 -80
WIRE -768 -64 -800 -64
WIRE -656 -64 -656 -176
WIRE -656 -64 -704 -64
WIRE -176 -48 -176 -112
WIRE -128 -48 -128 -64
WIRE -128 -48 -176 -48
WIRE -800 32 -800 -64
WIRE -768 32 -800 32
WIRE -656 48 -656 -64
WIRE -656 48 -704 48
WIRE -624 48 -656 48
WIRE -512 48 -512 -80
WIRE -512 48 -544 48
WIRE -448 48 -512 48
WIRE -960 64 -1040 64
WIRE -944 64 -960 64
WIRE -768 64 -880 64
WIRE -320 64 -320 -80
WIRE -320 64 -384 64
WIRE -240 64 -240 -48
WIRE -240 64 -320 64
WIRE -128 64 -128 -48
WIRE -128 64 -240 64
WIRE -112 64 -128 64
WIRE 0 64 -48 64
WIRE -448 80 -464 80
WIRE 144 80 80 80
WIRE -880 112 -880 64
WIRE -800 112 -800 32
WIRE -464 112 -464 80
WIRE -48 112 -48 64
WIRE -1040 128 -1040 64
WIRE -1088 160 -1168 160
WIRE -1168 192 -1168 160
WIRE -48 208 -48 192
WIRE -880 224 -880 192
WIRE -800 224 -800 192
WIRE -800 224 -880 224
WIRE -800 240 -800 224
WIRE -512 240 -512 48
WIRE -656 288 -656 48
WIRE -624 288 -656 288
WIRE -544 288 -560 288
WIRE -400 288 -464 288
WIRE -320 288 -320 64
WIRE -320 288 -336 288
WIRE -1168 304 -1168 272
WIRE -1040 304 -1040 208
WIRE -1040 304 -1168 304
WIRE 176 320 80 320
WIRE 272 320 176 320
WIRE -1040 336 -1040 304
WIRE 176 336 176 320
WIRE -960 384 -960 64
WIRE 0 384 0 96
WIRE 0 384 -960 384
WIRE 272 400 272 320
WIRE 176 432 176 416
WIRE 176 432 128 432
WIRE 176 448 176 432
WIRE 176 544 176 528
WIRE 176 544 80 544
WIRE 272 544 272 464
WIRE 272 544 176 544
FLAG 144 80 out
IOPIN 144 80 Out
FLAG 80 320 V+
FLAG -416 32 V+
FLAG 128 432 0
FLAG 272 -80 0
FLAG -1040 336 0
FLAG 80 544 V-
FLAG -416 96 V-
FLAG -464 112 0
FLAG -736 16 V+
FLAG -736 80 V-
FLAG -800 240 0
FLAG -48 208 0
SYMBOL res 64 -208 R270
WINDOW 0 32 56 VTop 2
WINDOW 3 0 56 VBottom 2
SYMATTR InstName R3
SYMATTR Value 1k
SYMBOL res -496 -112 R180
WINDOW 0 36 76 Left 2
WINDOW 3 36 40 Left 2
SYMATTR InstName R4
SYMATTR Value 4.7k
SYMBOL res -640 64 R270
WINDOW 0 32 56 VTop 2
WINDOW 3 0 56 VBottom 2
SYMATTR InstName R5
SYMATTR Value 22k
SYMBOL cap -336 272 R90
WINDOW 0 0 32 VBottom 2
WINDOW 3 29 2 VTop 2
SYMATTR InstName C1
SYMATTR Value 4700p
SYMBOL cap -560 272 R90
WINDOW 0 0 32 VBottom 2
WINDOW 3 32 32 VTop 2
SYMATTR InstName C2
SYMATTR Value 22n
SYMBOL cap -352 -96 R90
WINDOW 0 0 32 VBottom 2
WINDOW 3 32 32 VTop 2
SYMATTR InstName C3
SYMATTR Value 470p
SYMBOL cap -304 -128 R180
WINDOW 0 24 56 Left 2
WINDOW 3 24 8 Left 2
SYMATTR InstName C4
SYMATTR Value 470n
SYMBOL polcap 256 400 R0
SYMATTR InstName C5
SYMATTR Value 1µ
SYMBOL polcap 176 -208 R270
WINDOW 0 32 32 VTop 2
WINDOW 3 0 32 VBottom 2
SYMATTR InstName C7
SYMATTR Value 100µ
SYMBOL polcap -112 80 R270
WINDOW 0 32 32 VTop 2
WINDOW 3 0 32 VBottom 2
SYMATTR InstName C9
SYMATTR Value 10µ
SYMBOL voltage 176 320 R0
WINDOW 123 0 0 Left 2
WINDOW 39 0 0 Left 2
SYMATTR InstName V1
SYMATTR Value 4.5
SYMBOL voltage -1168 176 R0
WINDOW 0 39 81 Top 2
WINDOW 3 -60 137 Invisible 2
SYMATTR InstName V2
SYMATTR Value SINE(0 0.01 1000)
SYMATTR Value2 AC 1
SYMATTR SpiceLine Rser=7000
SYMBOL potentiometer_standard -112 -48 R180
WINDOW 39 48 112 Invisible 2
WINDOW 38 48 41 Invisible 2
WINDOW 0 35 127 Left 2
WINDOW 3 -10 91 Invisible 2
SYMATTR SpiceLine Rtap=1.0k tap=0.5
SYMATTR SpiceModel pot_plog
SYMATTR InstName Bass
SYMATTR Value Rtot=100K wiper={w}
SYMBOL potentiometer_standard -448 304 M270
WINDOW 38 48 41 Invisible 2
WINDOW 39 48 112 Invisible 2
WINDOW 0 60 30 VLeft 2
WINDOW 3 -22 212 Invisible 2
SYMATTR SpiceModel pot_nlog
SYMATTR SpiceLine Rtap=14k tap=0.5
SYMATTR InstName Treble
SYMATTR Value Rtot=100K wiper=0.5
SYMBOL Opamps\\UniversalOpamp2 -416 64 R0
SYMATTR InstName LM833.2
SYMBOL potentiometer_standard -1024 224 R180
WINDOW 38 48 41 Invisible 2
WINDOW 39 48 112 Invisible 2
WINDOW 0 62 136 Left 2
WINDOW 3 30 1 Invisible 2
SYMATTR SpiceModel pot_nlog
SYMATTR SpiceLine Rtap=50k tap=0.5
SYMATTR InstName Vol
SYMATTR Value Rtot=500K wiper=1
SYMBOL cap 192 -144 R90
WINDOW 0 0 32 VBottom 2
WINDOW 3 32 32 VTop 2
SYMATTR InstName C10
SYMATTR Value 0.047µ
SYMBOL Misc\\spdt -32 -176 M180
WINDOW 3 -32 36 Invisible 2
SYMATTR Value SET={sw}
SYMATTR InstName U1.2
SYMBOL Misc\\spdt 32 80 R180
WINDOW 3 -32 36 Invisible 2
SYMATTR Value SET={sw}
SYMATTR InstName U1.1
SYMBOL voltage 176 432 R0
WINDOW 123 0 0 Left 2
WINDOW 39 0 0 Left 2
SYMATTR InstName V3
SYMATTR Value 4.5
SYMBOL Opamps\\UniversalOpamp2 -736 48 R0
SYMATTR InstName LM833.1
SYMBOL res -896 96 R0
SYMATTR InstName R1
SYMATTR Value 1Meg
SYMBOL res -784 -64 R180
WINDOW 0 36 76 Left 2
WINDOW 3 36 40 Left 2
SYMATTR InstName R2
SYMATTR Value 1K
SYMBOL res -816 96 R0
SYMATTR InstName R6
SYMATTR Value 2.2K
SYMBOL cap -704 -80 R90
WINDOW 0 0 32 VBottom 2
WINDOW 3 32 32 VTop 2
SYMATTR InstName C6
SYMATTR Value 100p
SYMBOL potentiometer -784 -160 R270
WINDOW 0 66 -6 VRight 2
WINDOW 3 36 88 Invisible 2
SYMATTR InstName Gain
SYMATTR Value Rtot=4.7K wiper=0.8
SYMBOL res -256 -144 R0
SYMATTR InstName R7
SYMATTR Value 15K
SYMBOL res -64 96 R0
WINDOW 0 -42 47 Left 2
WINDOW 3 -70 80 Left 2
SYMATTR InstName R8
SYMATTR Value 1Meg
SYMBOL cap -944 80 R270
WINDOW 0 32 32 VTop 2
WINDOW 3 0 32 VBottom 2
SYMATTR InstName C8
SYMATTR Value 0.1µ
TEXT -792 504 Left 2 !.ac oct 100 20 20k
TEXT -800 472 Left 2 !.include potentiometer_standard.lib
TEXT -800 544 Left 2 !.step lin param w 0 1 0.1
TEXT -208 -152 Left 2 ;100K log
TEXT -536 336 Left 2 ;100K rev log
TEXT -1152 128 Left 2 ;500K log
TEXT -800 584 Left 2 !.param sw 1
TEXT -736 -264 Left 2 ;4.7K lin
LINE Normal -48 0 48 64 2
LINE Normal -48 -160 -48 0 2
LINE Normal -48 -160 -48 -160 1
