Version 4
SHEET 1 1644 972
WIRE -656 -256 -720 -256
WIRE -720 -240 -720 -256
WIRE -320 -240 -512 -240
WIRE -256 -240 -320 -240
WIRE 32 -240 -256 -240
WIRE 64 -240 32 -240
WIRE 176 -240 144 -240
WIRE 272 -240 240 -240
WIRE -512 -224 -512 -240
WIRE -320 -208 -320 -240
WIRE 32 -208 32 -240
WIRE 32 -208 0 -208
WIRE -768 -192 -800 -192
WIRE -656 -192 -656 -256
WIRE -656 -192 -688 -192
WIRE -80 -192 -128 -192
WIRE -800 -176 -800 -192
WIRE 32 -176 0 -176
WIRE -128 -160 -128 -192
WIRE -256 -144 -256 -240
WIRE 32 -144 32 -176
WIRE 128 -144 32 -144
WIRE 272 -144 272 -240
WIRE 272 -144 192 -144
WIRE -512 -96 -512 -144
WIRE -448 -96 -512 -96
WIRE -320 -96 -320 -144
WIRE -320 -96 -384 -96
WIRE 272 -96 272 -144
WIRE -800 -80 -800 -96
WIRE -768 -80 -800 -80
WIRE -656 -80 -656 -192
WIRE -656 -80 -704 -80
WIRE -176 -32 -176 -128
WIRE -128 -32 -128 -80
WIRE -128 -32 -176 -32
WIRE -800 32 -800 -80
WIRE -768 32 -800 32
WIRE -656 48 -656 -80
WIRE -656 48 -704 48
WIRE -624 48 -656 48
WIRE -512 48 -512 -96
WIRE -512 48 -544 48
WIRE -448 48 -512 48
WIRE -960 64 -1040 64
WIRE -944 64 -960 64
WIRE -768 64 -880 64
WIRE -320 64 -320 -96
WIRE -320 64 -384 64
WIRE -256 64 -256 -64
WIRE -256 64 -320 64
WIRE -208 64 -256 64
WIRE -448 80 -464 80
WIRE -128 80 -128 -32
WIRE -80 80 -128 80
WIRE 48 80 -16 80
WIRE -208 96 -224 96
WIRE -880 112 -880 64
WIRE -800 112 -800 32
WIRE -464 112 -464 80
WIRE -1040 128 -1040 64
WIRE -1088 160 -1168 160
WIRE -1168 192 -1168 160
WIRE -224 208 -224 96
WIRE -208 208 -224 208
WIRE -96 208 -128 208
WIRE -880 224 -880 192
WIRE -800 224 -800 192
WIRE -800 224 -880 224
WIRE -800 240 -800 224
WIRE -512 240 -512 48
WIRE -656 288 -656 48
WIRE -624 288 -656 288
WIRE -544 288 -560 288
WIRE -400 288 -464 288
WIRE -320 288 -320 64
WIRE -320 288 -336 288
WIRE -224 288 -224 208
WIRE 64 288 16 288
WIRE 112 288 64 288
WIRE 160 288 112 288
WIRE 256 288 160 288
WIRE -1168 304 -1168 272
WIRE -1040 304 -1040 208
WIRE -1040 304 -1168 304
WIRE 64 304 64 288
WIRE -1040 336 -1040 304
WIRE 112 368 112 288
WIRE 160 368 160 288
WIRE 256 368 256 288
WIRE -960 384 -960 64
WIRE -224 384 -224 352
WIRE -224 384 -960 384
WIRE -32 400 -48 400
WIRE 64 400 64 384
WIRE 64 400 -32 400
WIRE 64 416 64 400
WIRE -32 432 -32 400
WIRE -32 512 -32 496
WIRE 64 512 64 496
WIRE 64 512 -32 512
WIRE 112 512 112 432
WIRE 112 512 64 512
WIRE 160 512 160 432
WIRE 160 512 112 512
WIRE 256 512 256 448
WIRE 256 512 160 512
WIRE 256 528 256 512
FLAG 48 80 out
IOPIN 48 80 Out
FLAG 16 288 V+
FLAG -416 32 V+
FLAG 256 528 0
FLAG 272 -96 0
FLAG -1040 336 0
FLAG -736 16 V+
FLAG -48 400 Vref
FLAG -464 112 Vref
FLAG -800 240 Vref
FLAG -736 80 0
FLAG -416 96 0
FLAG -96 208 Vref
SYMBOL res 48 -224 R270
WINDOW 0 32 56 VTop 2
WINDOW 3 0 56 VBottom 2
SYMATTR InstName R3
SYMATTR Value 1k
SYMBOL res -496 -128 R180
WINDOW 0 36 76 Left 2
WINDOW 3 36 40 Left 2
SYMATTR InstName R4
SYMATTR Value 5.6k
SYMBOL res -640 64 R270
WINDOW 0 32 56 VTop 2
WINDOW 3 0 56 VBottom 2
SYMATTR InstName R5
SYMATTR Value 33k
SYMBOL cap -336 272 R90
WINDOW 0 0 32 VBottom 2
WINDOW 3 29 2 VTop 2
SYMATTR InstName C1
SYMATTR Value 4700p
SYMBOL cap -560 272 R90
WINDOW 0 0 32 VBottom 2
WINDOW 3 32 32 VTop 2
SYMATTR InstName C2
SYMATTR Value 22n
SYMBOL cap -384 -112 R90
WINDOW 0 0 32 VBottom 2
WINDOW 3 32 32 VTop 2
SYMATTR InstName C3
SYMATTR Value 470p
SYMBOL cap -304 -144 R180
WINDOW 0 24 56 Left 2
WINDOW 3 24 8 Left 2
SYMATTR InstName C4
SYMATTR Value 470n
SYMBOL polcap 96 368 R0
SYMATTR InstName C5
SYMATTR Value 1µ
SYMBOL polcap 176 -224 R270
WINDOW 0 32 32 VTop 2
WINDOW 3 0 32 VBottom 2
SYMATTR InstName C7
SYMATTR Value 47µ
SYMBOL polcap -880 48 R90
WINDOW 0 0 32 VBottom 2
WINDOW 3 32 32 VTop 2
SYMATTR InstName C8
SYMATTR Value 0.1µ
SYMBOL polcap -80 96 R270
WINDOW 0 32 32 VTop 2
WINDOW 3 0 32 VBottom 2
SYMATTR InstName C9
SYMATTR Value 22µ
SYMBOL voltage 256 352 R0
WINDOW 123 0 0 Left 2
WINDOW 39 0 0 Left 2
SYMATTR Value2 ""
SYMATTR SpiceLine ""
SYMATTR InstName V1
SYMATTR Value 4.5
SYMBOL voltage -1168 176 R0
WINDOW 0 39 81 Top 2
WINDOW 3 -60 137 Invisible 2
SYMATTR InstName V2
SYMATTR Value SINE(0 0.01 1000)
SYMATTR Value2 AC 1
SYMATTR SpiceLine Rser=7000
SYMBOL potentiometer_standard -112 -64 R180
WINDOW 39 -68 218 Left 2
WINDOW 38 48 41 Invisible 2
WINDOW 0 35 127 Left 2
WINDOW 3 -91 255 Left 2
SYMATTR SpiceLine Rtap=10k tap=0.5
SYMATTR SpiceModel pot_radiohm_plog
SYMATTR InstName Bass
SYMATTR Value Rtot=100K wiper={w}
SYMBOL potentiometer_standard -448 304 M270
WINDOW 38 48 41 Invisible 2
WINDOW 39 48 112 Invisible 2
WINDOW 0 60 30 VLeft 2
WINDOW 3 -22 212 Invisible 2
SYMATTR SpiceModel pot_nlog
SYMATTR SpiceLine Rtap=14k tap=0.5
SYMATTR InstName Treble
SYMATTR Value Rtot=100K wiper=1-{w}
SYMBOL Opamps\\UniversalOpamp2 -416 64 R0
SYMATTR InstName LM833.2
SYMBOL potentiometer_standard -1024 224 R180
WINDOW 38 48 41 Invisible 2
WINDOW 39 48 112 Invisible 2
WINDOW 0 62 136 Left 2
WINDOW 3 30 1 Invisible 2
SYMATTR SpiceModel pot_nlog
SYMATTR SpiceLine Rtap=50k tap=0.5
SYMATTR InstName Vol
SYMATTR Value Rtot=500K wiper=1
SYMBOL cap 192 -160 R90
WINDOW 0 0 32 VBottom 2
WINDOW 3 32 32 VTop 2
SYMATTR InstName C10
SYMATTR Value 0.047µ
SYMBOL spdt -32 -192 M180
WINDOW 3 -32 36 Invisible 2
SYMATTR Value SET={sw}
SYMATTR InstName U1.2
SYMBOL spdt -176 80 R180
WINDOW 3 -32 36 Invisible 2
SYMATTR Value SET={sw}
SYMATTR InstName U1.1
SYMBOL Opamps\\UniversalOpamp2 -736 48 R0
SYMATTR InstName LM833.1
SYMBOL res -896 96 R0
SYMATTR InstName R1
SYMATTR Value 1Meg
SYMBOL res -784 -80 R180
WINDOW 0 36 76 Left 2
WINDOW 3 36 40 Left 2
SYMATTR InstName R2
SYMATTR Value 1K
SYMBOL res -816 96 R0
SYMATTR InstName R6
SYMATTR Value 2.2K
SYMBOL cap -704 -96 R90
WINDOW 0 0 32 VBottom 2
WINDOW 3 32 32 VTop 2
SYMATTR InstName C6
SYMATTR Value 100p
SYMBOL potentiometer -784 -176 R270
WINDOW 0 66 -6 VRight 2
WINDOW 3 36 88 Invisible 2
SYMATTR InstName Gain
SYMATTR Value Rtot=4.7K wiper=0.8
SYMBOL res -272 -160 R0
SYMATTR InstName R7
SYMATTR Value 15K
SYMBOL res 48 288 R0
WINDOW 0 -35 33 Left 2
WINDOW 3 -56 65 Left 2
SYMATTR InstName R8
SYMATTR Value 1Meg
SYMBOL res 48 400 R0
WINDOW 0 -43 28 Left 2
WINDOW 3 -54 73 Left 2
SYMATTR InstName R9
SYMATTR Value 1Meg
SYMBOL cap -48 432 R0
WINDOW 0 -41 8 Left 2
WINDOW 3 -39 53 Left 2
SYMATTR InstName C11
SYMATTR Value 1µ
SYMBOL cap 144 368 R0
SYMATTR InstName C12
SYMATTR Value 100n
SYMBOL polcap -240 288 R0
SYMATTR InstName C13
SYMATTR Value 22µ
SYMBOL res -112 192 R90
WINDOW 0 0 56 VBottom 2
WINDOW 3 32 56 VTop 2
SYMATTR InstName R10
SYMATTR Value 1Meg
TEXT -808 464 Left 2 !.ac oct 100 20 20k
TEXT -816 432 Left 2 !.include potentiometer_standard.lib
TEXT -816 504 Left 2 !.step lin param w 0 1 0.1
TEXT -536 336 Left 2 ;100K rev log
TEXT -1152 128 Left 2 ;500K log
TEXT -816 544 Left 2 !.param sw 1
TEXT -736 -280 Left 2 ;4.7K lin
LINE Normal -48 -48 -160 64 2
LINE Normal -48 -176 -48 -48 2
LINE Normal -48 -176 -48 -176 1
