Version 4
SHEET 1 1644 972
WIRE -320 -272 -384 -272
WIRE 32 -272 -256 -272
WIRE 64 -272 32 -272
WIRE 176 -272 144 -272
WIRE 272 -272 240 -272
WIRE 32 -240 32 -272
WIRE 32 -240 0 -240
WIRE -432 -224 -512 -224
WIRE -320 -224 -320 -272
WIRE -320 -224 -352 -224
WIRE -288 -224 -320 -224
WIRE -256 -224 -256 -272
WIRE -256 -224 -288 -224
WIRE -80 -224 -128 -224
WIRE -512 -208 -512 -224
WIRE 32 -208 0 -208
WIRE -288 -192 -288 -224
WIRE -128 -192 -128 -224
WIRE 32 -176 32 -208
WIRE 128 -176 32 -176
WIRE 272 -176 272 -272
WIRE 272 -176 192 -176
WIRE 272 -128 272 -176
WIRE -256 -112 -256 -224
WIRE -176 -96 -176 -160
WIRE -128 -96 -128 -112
WIRE -128 -96 -176 -96
WIRE -512 -80 -512 -128
WIRE -416 -80 -512 -80
WIRE -288 -80 -288 -128
WIRE -288 -80 -352 -80
WIRE -384 32 -384 16
WIRE -800 48 -896 48
WIRE -768 48 -800 48
WIRE -672 48 -704 48
WIRE -624 48 -672 48
WIRE -512 48 -512 -80
WIRE -512 48 -544 48
WIRE -416 48 -512 48
WIRE -288 64 -288 -80
WIRE -288 64 -352 64
WIRE -256 64 -256 -32
WIRE -256 64 -288 64
WIRE -208 64 -256 64
WIRE -416 80 -432 80
WIRE -128 80 -128 -96
WIRE -80 80 -128 80
WIRE 16 80 -16 80
WIRE -208 96 -224 96
WIRE -432 112 -432 80
WIRE -384 112 -384 96
WIRE -896 144 -896 48
WIRE 16 144 16 80
WIRE 128 176 64 176
WIRE -896 240 -896 224
WIRE -512 240 -512 48
WIRE -672 288 -672 48
WIRE -640 288 -672 288
WIRE -544 288 -576 288
WIRE -368 288 -464 288
WIRE -288 288 -288 64
WIRE -288 288 -304 288
WIRE 16 288 16 224
WIRE -32 368 -64 368
WIRE 112 368 -32 368
WIRE 208 368 112 368
WIRE -800 384 -800 48
WIRE -224 384 -224 96
WIRE -224 384 -800 384
WIRE -32 400 -32 368
WIRE 112 480 112 368
WIRE 208 480 208 368
WIRE -96 512 -112 512
WIRE -32 512 -32 480
WIRE -32 512 -96 512
WIRE -32 528 -32 512
WIRE -96 544 -96 512
WIRE -96 624 -96 608
WIRE -32 624 -32 608
WIRE -32 624 -96 624
WIRE 112 624 112 560
WIRE 112 624 -32 624
WIRE 208 624 208 544
WIRE 208 624 112 624
WIRE 112 656 112 624
FLAG 16 288 0
FLAG 128 176 out
IOPIN 128 176 Out
FLAG -64 368 V+
FLAG -112 512 Vref
FLAG -432 112 Vref
FLAG -384 16 V+
FLAG -384 112 0
FLAG 112 656 0
FLAG -896 240 0
FLAG 272 -128 0
SYMBOL res -48 384 R0
SYMATTR InstName R1
SYMATTR Value 2.2meg
SYMBOL res -48 512 R0
SYMATTR InstName R2
SYMATTR Value 2.2meg
SYMBOL res 48 -256 R270
WINDOW 0 32 56 VTop 2
WINDOW 3 0 56 VBottom 2
SYMATTR InstName R3
SYMATTR Value 10k
SYMBOL res -496 -112 R180
WINDOW 0 36 76 Left 2
WINDOW 3 36 40 Left 2
SYMATTR InstName R4
SYMATTR Value 100k
SYMBOL res -640 64 R270
WINDOW 0 32 56 VTop 2
WINDOW 3 0 56 VBottom 2
SYMATTR InstName R5
SYMATTR Value 220k
SYMBOL cap -304 272 R90
WINDOW 0 0 32 VBottom 2
WINDOW 3 32 32 VTop 2
SYMATTR InstName C1
SYMATTR Value 470p
SYMBOL cap -576 272 R90
WINDOW 0 0 32 VBottom 2
WINDOW 3 32 32 VTop 2
SYMATTR InstName C2
SYMATTR Value 2.2n
SYMBOL cap -352 -96 R90
WINDOW 0 0 32 VBottom 2
WINDOW 3 32 32 VTop 2
SYMATTR InstName C3
SYMATTR Value 100p
SYMBOL cap -272 -128 R180
WINDOW 0 24 56 Left 2
WINDOW 3 24 8 Left 2
SYMATTR InstName C4
SYMATTR Value 50n
SYMBOL polcap 192 480 R0
SYMATTR InstName C5
SYMATTR Value 1µ
SYMBOL polcap -112 544 R0
SYMATTR InstName C6
SYMATTR Value 1µ
SYMBOL polcap 176 -256 R270
WINDOW 0 32 32 VTop 2
WINDOW 3 0 32 VBottom 2
SYMATTR InstName C7
SYMATTR Value 10µ
SYMBOL polcap -768 64 R270
WINDOW 0 32 32 VTop 2
WINDOW 3 0 32 VBottom 2
SYMATTR InstName C8
SYMATTR Value 1µ
SYMBOL polcap -80 96 R270
WINDOW 0 32 32 VTop 2
WINDOW 3 0 32 VBottom 2
SYMATTR InstName C9
SYMATTR Value 10µ
SYMBOL voltage 112 464 R0
WINDOW 123 0 0 Left 2
WINDOW 39 0 0 Left 2
SYMATTR InstName V1
SYMATTR Value 9
SYMBOL voltage -896 128 R0
WINDOW 0 39 81 Top 2
WINDOW 3 -60 137 Invisible 2
SYMATTR InstName V2
SYMATTR Value SINE(0 0.01 1000)
SYMATTR Value2 AC 1
SYMATTR SpiceLine Rser=5000
SYMBOL potentiometer_standard -112 -96 R180
WINDOW 39 48 112 Invisible 2
WINDOW 38 48 41 Invisible 2
WINDOW 0 -55 23 Left 2
WINDOW 3 -243 26 Invisible 2
SYMATTR SpiceLine Rtap=12k tap=0.5
SYMATTR SpiceModel pot_plog
SYMATTR InstName Bass
SYMATTR Value Rtot=100K wiper={w}
SYMBOL potentiometer_standard -448 304 M270
WINDOW 38 48 41 Invisible 2
WINDOW 39 48 112 Invisible 2
WINDOW 0 60 30 VLeft 2
WINDOW 3 -22 212 Invisible 2
SYMATTR SpiceModel pot_nlog
SYMATTR SpiceLine Rtap=140k tap=0.5
SYMATTR InstName Treble
SYMATTR Value Rtot=1000K wiper=0.5
SYMBOL Opamps\\UniversalOpamp2 -384 64 R0
SYMATTR InstName LM833
SYMBOL potentiometer_standard 0 240 M180
WINDOW 38 48 41 Invisible 2
WINDOW 39 48 112 Invisible 2
WINDOW 0 26 115 Left 2
WINDOW 3 30 1 Invisible 2
SYMATTR SpiceModel pot_nlog
SYMATTR SpiceLine Rtap=10k tap=0.5
SYMATTR InstName Vol
SYMATTR Value Rtot=100K wiper=1
SYMBOL Misc\\potentiometer_standard -448 -208 R270
WINDOW 0 86 -63 VRight 2
WINDOW 3 48 89 Invisible 2
WINDOW 39 48 112 Invisible 2
WINDOW 38 48 41 Invisible 2
SYMATTR InstName Gain_trim
SYMATTR Value Rtot=100K wiper=1
SYMATTR SpiceLine Rtap=50k tap=0.5
SYMBOL cap 192 -192 R90
WINDOW 0 0 32 VBottom 2
WINDOW 3 32 32 VTop 2
SYMATTR InstName C10
SYMATTR Value 0.047µ
SYMBOL res -272 -128 R0
SYMATTR InstName R6
SYMATTR Value 1Meg
SYMBOL Misc\\spdt -32 -224 M180
WINDOW 3 -32 36 Invisible 2
SYMATTR InstName U1.2
SYMATTR Value SET={sw}
SYMBOL Misc\\spdt -176 80 R180
WINDOW 3 -32 36 Invisible 2
SYMATTR InstName U1.1
SYMATTR Value SET={sw}
TEXT -792 608 Left 2 !.ac oct 100 20 20k
TEXT -800 576 Left 2 !.include potentiometer_standard.lib
TEXT -800 648 Left 2 !.step lin param w 0 1 0.1
TEXT -152 -72 Left 2 ;100K log
TEXT -536 336 Left 2 ;1Meg rev log
TEXT 24 232 Left 2 ;25K log
TEXT -496 -264 Left 2 ;100K lin
TEXT -800 688 Left 2 !.param sw 0
LINE Normal -48 0 -160 64 2
LINE Normal -48 -208 -48 0 2
LINE Normal -48 -208 -48 -208 1
