Version 4
SHEET 1 1644 972
WIRE -688 -272 -768 -272
WIRE -688 -240 -688 -272
WIRE -256 -240 -512 -240
WIRE 96 -240 -256 -240
WIRE 128 -240 96 -240
WIRE 240 -240 208 -240
WIRE 336 -240 304 -240
WIRE -512 -224 -512 -240
WIRE -256 -208 -256 -240
WIRE 96 -208 96 -240
WIRE 96 -208 64 -208
WIRE -768 -192 -768 -272
WIRE -736 -192 -768 -192
WIRE -640 -192 -656 -192
WIRE -16 -192 -64 -192
WIRE -768 -176 -768 -192
WIRE 96 -176 64 -176
WIRE -64 -160 -64 -192
WIRE 96 -144 96 -176
WIRE 192 -144 96 -144
WIRE 336 -144 336 -240
WIRE 336 -144 256 -144
WIRE -512 -96 -512 -144
WIRE -448 -96 -512 -96
WIRE -256 -96 -256 -144
WIRE -256 -96 -384 -96
WIRE 336 -96 336 -144
WIRE -768 -80 -768 -96
WIRE -736 -80 -768 -80
WIRE -640 -80 -640 -192
WIRE -640 -80 -672 -80
WIRE -112 -32 -112 -128
WIRE -64 -32 -64 -80
WIRE -64 -32 -112 -32
WIRE -704 16 -704 0
WIRE -768 32 -768 -80
WIRE -736 32 -768 32
WIRE -640 48 -640 -80
WIRE -640 48 -672 48
WIRE -624 48 -640 48
WIRE -512 48 -512 -96
WIRE -512 48 -544 48
WIRE -448 48 -512 48
WIRE -896 64 -928 64
WIRE -880 64 -896 64
WIRE -736 64 -816 64
WIRE -368 64 -384 64
WIRE -256 64 -256 -96
WIRE -256 64 -288 64
WIRE -144 64 -256 64
WIRE -448 80 -464 80
WIRE -64 80 -64 -32
WIRE -16 80 -64 80
WIRE 112 80 48 80
WIRE -704 96 -704 80
WIRE -144 96 -160 96
WIRE -816 112 -816 64
WIRE -768 112 -768 32
WIRE -464 112 -464 80
WIRE -928 128 -928 64
WIRE -640 128 -640 48
WIRE -256 128 -256 64
WIRE -976 160 -1008 160
WIRE -1008 176 -1008 160
WIRE -160 208 -160 96
WIRE -144 208 -160 208
WIRE -32 208 -64 208
WIRE -816 224 -816 192
WIRE -768 224 -768 192
WIRE -768 224 -816 224
WIRE -768 240 -768 224
WIRE -512 240 -512 48
WIRE -640 288 -640 208
WIRE -624 288 -640 288
WIRE -544 288 -560 288
WIRE -400 288 -464 288
WIRE -256 288 -256 208
WIRE -256 288 -336 288
WIRE -160 288 -160 208
WIRE 128 288 80 288
WIRE 176 288 128 288
WIRE 224 288 176 288
WIRE 320 288 224 288
WIRE -1008 304 -1008 256
WIRE -928 304 -928 208
WIRE -928 304 -1008 304
WIRE 128 304 128 288
WIRE -928 336 -928 304
WIRE 176 368 176 288
WIRE 224 368 224 288
WIRE 320 368 320 288
WIRE -896 384 -896 64
WIRE -160 384 -160 352
WIRE -160 384 -896 384
WIRE 32 400 16 400
WIRE 128 400 128 384
WIRE 128 400 32 400
WIRE 128 416 128 400
WIRE 32 432 32 400
WIRE 32 512 32 496
WIRE 128 512 128 496
WIRE 128 512 32 512
WIRE 176 512 176 432
WIRE 176 512 128 512
WIRE 224 512 224 432
WIRE 224 512 176 512
WIRE 320 512 320 448
WIRE 320 512 224 512
WIRE 320 528 320 512
FLAG 112 80 out
IOPIN 112 80 Out
FLAG 80 288 V+
FLAG -416 32 V+
FLAG 320 528 0
FLAG 336 -96 0
FLAG -928 336 0
FLAG -704 0 V+
FLAG 16 400 Vref
FLAG -464 112 Vref
FLAG -768 240 Vref
FLAG -704 96 0
FLAG -416 96 0
FLAG -32 208 Vref
SYMBOL res 112 -224 R270
WINDOW 0 32 56 VTop 2
WINDOW 3 0 56 VBottom 2
SYMATTR InstName R3
SYMATTR Value 10K
SYMBOL res -496 -128 R180
WINDOW 0 36 76 Left 2
WINDOW 3 36 40 Left 2
SYMATTR InstName R4
SYMATTR Value 15K
SYMBOL res -640 64 R270
WINDOW 0 32 56 VTop 2
WINDOW 3 0 56 VBottom 2
SYMATTR InstName R5
SYMATTR Value 47K
SYMBOL cap -336 272 R90
WINDOW 0 0 32 VBottom 2
WINDOW 3 29 2 VTop 2
SYMATTR InstName C1
SYMATTR Value 2200p
SYMBOL cap -560 272 R90
WINDOW 0 0 32 VBottom 2
WINDOW 3 32 32 VTop 2
SYMATTR InstName C2
SYMATTR Value 11n
SYMBOL cap -384 -112 R90
WINDOW 0 0 32 VBottom 2
WINDOW 3 32 32 VTop 2
SYMATTR InstName C3
SYMATTR Value 470p
SYMBOL cap -240 -144 R180
WINDOW 0 24 56 Left 2
WINDOW 3 24 8 Left 2
SYMATTR InstName C4
SYMATTR Value 50n
SYMBOL polcap 160 368 R0
SYMATTR InstName C5
SYMATTR Value 10µ
SYMATTR SpiceLine ""
SYMBOL polcap 240 -224 R270
WINDOW 0 32 32 VTop 2
WINDOW 3 0 32 VBottom 2
SYMATTR InstName C7
SYMATTR Value 22µ
SYMBOL polcap -816 48 R90
WINDOW 0 0 32 VBottom 2
WINDOW 3 32 32 VTop 2
SYMATTR InstName C8
SYMATTR Value 0.1µ
SYMBOL polcap -16 96 R270
WINDOW 0 32 32 VTop 2
WINDOW 3 0 32 VBottom 2
SYMATTR InstName C9
SYMATTR Value 22µ
SYMBOL voltage 320 352 R0
WINDOW 123 0 0 Left 2
WINDOW 39 0 0 Left 2
SYMATTR Value2 ""
SYMATTR SpiceLine ""
SYMATTR InstName V1
SYMATTR Value 9
SYMBOL voltage -1008 160 R0
WINDOW 0 39 81 Top 2
WINDOW 3 -60 137 Invisible 2
SYMATTR InstName V2
SYMATTR Value SINE(0 0.01 1000)
SYMATTR Value2 AC 1
SYMATTR SpiceLine Rser=7000
SYMBOL potentiometer_standard -48 -64 R180
WINDOW 39 -68 218 Invisible 2
WINDOW 38 48 41 Invisible 2
WINDOW 0 35 127 Left 2
WINDOW 3 -91 255 Invisible 2
SYMATTR SpiceLine Rtap=10k tap=0.5
SYMATTR SpiceModel pot_radiohm_plog
SYMATTR InstName Bass
SYMATTR Value Rtot=100K wiper={w}
SYMBOL potentiometer_standard -448 304 M270
WINDOW 38 48 41 Invisible 2
WINDOW 39 48 112 Invisible 2
WINDOW 0 60 30 VLeft 2
WINDOW 3 -22 212 Invisible 2
SYMATTR SpiceModel pot_nlog
SYMATTR SpiceLine Rtap=10k tap=0.5
SYMATTR InstName Treble
SYMATTR Value Rtot=100K wiper=1-{w}
SYMBOL Opamps\\UniversalOpamp2 -416 64 R0
WINDOW 0 -1 -83 Left 2
SYMATTR InstName LM833.2
SYMBOL potentiometer_standard -912 224 R180
WINDOW 38 48 41 Invisible 2
WINDOW 39 48 112 Invisible 2
WINDOW 0 62 136 Left 2
WINDOW 3 30 1 Invisible 2
SYMATTR SpiceModel pot_nlog
SYMATTR SpiceLine Rtap=50k tap=0.5
SYMATTR InstName Vol
SYMATTR Value Rtot=500K wiper=1
SYMBOL cap 256 -160 R90
WINDOW 0 0 32 VBottom 2
WINDOW 3 32 32 VTop 2
SYMATTR InstName C10
SYMATTR Value 0.047µ
SYMBOL spdt 32 -192 M180
WINDOW 3 -32 36 Invisible 2
SYMATTR Value SET={sw}
SYMATTR InstName U1.2
SYMBOL spdt -112 80 R180
WINDOW 3 -32 36 Invisible 2
SYMATTR Value SET={sw}
SYMATTR InstName U1.1
SYMBOL Opamps\\UniversalOpamp2 -704 48 R0
WINDOW 0 18 -63 Left 2
SYMATTR InstName LM833.1
SYMBOL res -832 96 R0
WINDOW 0 -44 76 Left 2
WINDOW 3 -56 110 Left 2
SYMATTR InstName R1
SYMATTR Value 1Meg
SYMBOL res -752 -80 R180
WINDOW 0 36 76 Left 2
WINDOW 3 36 40 Left 2
SYMATTR InstName R2
SYMATTR Value 500
SYMBOL res -784 96 R0
WINDOW 0 47 57 Left 2
WINDOW 3 32 91 Left 2
SYMATTR InstName R6
SYMATTR Value 10K
SYMBOL cap -672 -96 R90
WINDOW 0 0 32 VBottom 2
WINDOW 3 32 32 VTop 2
SYMATTR InstName C6
SYMATTR Value 100p
SYMBOL potentiometer -752 -176 R270
WINDOW 0 66 -6 VRight 2
WINDOW 3 36 88 Invisible 2
SYMATTR InstName Gain
SYMATTR Value Rtot=4.7K wiper=0.5
SYMBOL res 112 288 R0
WINDOW 0 -35 33 Left 2
WINDOW 3 -56 65 Left 2
SYMATTR InstName R8
SYMATTR Value 20K
SYMBOL res 112 400 R0
WINDOW 0 -43 28 Left 2
WINDOW 3 -54 73 Left 2
SYMATTR InstName R9
SYMATTR Value 20K
SYMBOL cap 16 432 R0
WINDOW 0 -41 8 Left 2
WINDOW 3 -39 53 Left 2
SYMATTR InstName C11
SYMATTR Value 47µ
SYMBOL cap 208 368 R0
SYMATTR InstName C12
SYMATTR Value 100n
SYMBOL polcap -176 288 R0
SYMATTR InstName C13
SYMATTR Value 22µ
SYMBOL res -48 192 R90
WINDOW 0 0 56 VBottom 2
WINDOW 3 32 56 VTop 2
SYMATTR InstName R10
SYMATTR Value 1Meg
SYMBOL res -656 112 R0
SYMATTR InstName R11
SYMATTR Value 2.2k
SYMBOL res -272 112 R0
SYMATTR InstName R12
SYMATTR Value 22K
SYMBOL res -272 48 R90
WINDOW 0 0 56 VBottom 2
WINDOW 3 32 56 VTop 2
SYMATTR InstName R7
SYMATTR Value 500
SYMATTR SpiceLine ""
TEXT -808 464 Left 2 !.ac oct 500 10 30k
TEXT -816 432 Left 2 !.include potentiometer_standard.lib
TEXT -816 504 Left 2 !.step lin param w 0 1 0.1
TEXT -536 336 Left 2 ;100K rev log
TEXT -1032 128 Left 2 ;500K log
TEXT -848 544 Left 2 !.param sw 1
TEXT -672 -248 Left 2 ;4.7K lin
TEXT -168 -160 Left 2 ;100K log
LINE Normal 16 -48 -96 64 2
LINE Normal 16 -176 16 -48 2
LINE Normal 16 -176 16 -176 1
